tests/fuzzer/corpus_json/24_columnar_21_random_028.json
{
  "version": "1.0",
  "type": "input",
  "is_batch": false,
  "attributes": {
    "node": [
      "id",
      "u_rated"
    ],
    "source": [
      "id",
      "node",
      "status",
      "u_ref",
      "u_ref_angle",
      "sk",
      "rx_ratio",
      "z01_ratio"
    ],
    "line": [
      "id",
      "from_node",
      "to_node",
      "from_status",
      "to_status",
      "r1",
      "x1",
      "c1",
      "tan1",
      "r0",
      "x0",
      "c0",
      "tan0",
      "i_n"
    ],
    "sym_load": [
      "id",
      "node",
      "status",
      "type",
      "p_specified",
      "q_specified"
    ],
    "shunt": [
      "id",
      "node",
      "status",
      "g1",
      "b1",
      "g0",
      "b0"
    ]
  },
  "data": {
    "node": [
      [
        0,
        400.0
      ],
      [
        1,
        400.0
      ],
      [
        2,
        400.0
      ]
    ],
    "source": [
      [
        3,
        0,
        1,
        1.0424183475644073,
        0.0,
        545700950.2180007,
        0.11320330251938371,
        1.0
      ]
    ],
    "line": [
      [
        4,
        0,
        1,
        1,
        1,
        3.818286933659314,
        1.0546080847579664,
        1.4431594604013263e-07,
        0.0,
        0.3,
        0.3,
        1e-09,
        0.0,
        171.24521288157464
      ],
      [
        5,
        1,
        2,
        1,
        1,
        4.776060437079602,
        3.0320116947437152,
        2.012279259249301e-07,
        0.0,
        0.3,
        0.3,
        1e-09,
        0.0,
        412.92946850872204
      ]
    ],
    "sym_load": [
      [
        6,
        1,
        1,
        1,
        96948.0006365208,
        -3708.896980207037
      ]
    ],
    "shunt": [
      [
        7,
        0,
        1,
        9.04000043368862e-05,
        1.2907006140447082e-06,
        0.0001,
        0.0001
      ]
    ]
  }
}
